* PSpice Model Editor - Version 17.2.0
*$
.model FYPDD  D(Is=5.0u N=1.05 Rs=20 Xti=2 Eg=0.69 Cjo=0.14p
+               M=.4 Vj=.34 Fc=.5 Bv=2 Ibv=100u Tt=10p)
*$
*BeginSpec
*IF:
*JC:
*RL:
*RB: Vz=0 Iz=0 Zz=0
*RR: Trr=0 Ifwd=10.000E-3 Irev=10.000E-3 Rl=100
*EndSpec
*BeginTrace
*IF: 1,0,.4,1.2000,1,3,0,0,-1 (27)
*JC: 0,1,.1,10,1,3,0,0,-1 (27)
*RL: 0,0,1,100,1,3,0,0,-1 (27)
*RB: 0,1,100.00E-6,1,1,3,0,0,-1 (27)
*RR: 0,0,-5.0000E-9,20.000E-9,1,3,0,0,-1 (27)
*EndTrace
*BeginParam
*IS=5.0000E-6 (10.000E-21,.1,0)
*N=1.0500 (.2,5,0)
*RS=20 (1.0000E-6,100,0)
*IKF=0 (0,1.0000E3,0)
*XTI=2 (-100,100,0)
*EG=.69 (.1,5.5100,0)
*CJO=140.00E-15 (10.000E-21,1.0000E-3,0)
*M=.4 (.1,10,0)
*VJ=.394 (.3905,10,0)
*FC=.5 (1.0000E-3,10,0)
*ISR=100.00E-12 (10.000E-21,.1,0)
*NR=2 (.5,5,0)
*BV=2 (.1,1.0000E6,0)
*IBV=100.00E-6 (1.0000E-9,10,0)
*TT=10.000E-12 (100.00E-18,1.0000E-3,0)
*EndParam
*DEVICE=FYPD,D
* FYPD D model
* updated using Model Editor release 17.2.0 on 04/28/18 at 18:59
* The Model Editor is a PSpice product.
.MODEL FYPD D
+ IS=5.0000E-6
+ N=1.0500
+ RS=20
+ XTI=2
+ EG=.69
+ CJO=140.00E-15
+ M=.4
+ VJ=.394
+ ISR=100.00E-12
+ BV=2
+ IBV=100.00E-6
+ TT=10.000E-12
*$
